LTspice 24.1.9 for Windows
Circuit: C:\Users\akash\Documents\git\LTSpicePlayground\charge_pump\charge_pump.net
Start Time: Tue Oct  7 21:25:18 2025
solver = Normal
Maximum thread count: 12
tnom = 27
temp = 27
method = trap
Direct Newton iteration for .op point succeeded.
Total elapsed time: 0.248 seconds.

Files loaded:
C:\Users\akash\Documents\git\LTSpicePlayground\charge_pump\charge_pump.net
C:\Users\akash\AppData\Local\LTspice\lib\sub\NE555.sub

