LTspice 24.1.9 for Windows
Circuit: C:\Users\akash\Documents\git\LTSpicePlayground\bms_cc_balance\cc_balance.net
Start Time: Wed Oct 29 20:52:50 2025
solver = Normal
Maximum thread count: 12
tnom = 27
temp = 27
method = trap
Direct Newton iteration for .op point succeeded.
Total elapsed time: 0.099 seconds.

Files loaded:
C:\Users\akash\Documents\git\LTSpicePlayground\bms_cc_balance\cc_balance.net
C:\Users\akash\AppData\Local\LTspice\lib\cmp\standard.dio
C:\Users\akash\AppData\Local\LTspice\lib\cmp\standard.bjt

