LTspice 24.1.9 for Windows
Circuit: C:\Users\akash\Documents\git\LTSpicePlayground\nmos_charge_pump\stm_nmos.net
Start Time: Mon Nov 17 21:55:51 2025
solver = Normal
Maximum thread count: 12
tnom = 27
temp = 27
method = trap
C:\Users\akash\Documents\git\LTSpicePlayground\nmos_charge_pump\stm_nmos.net(3): WARNING: Specified period is not longer than the sum of Trise, Tfall, and Ton. Increasing period to 2.1e-05.

V1 PWM 0 PULSE(0 3.3 0 0.00001 .00001 1u 2u)
^^^^^^^^^^^^^^^^^^^^^^^^^^^^^^^^^^^^^^^^^^^^
Direct Newton iteration for .op point succeeded.
Total elapsed time: 2012.836 seconds.

Files loaded:
C:\Users\akash\Documents\git\LTSpicePlayground\nmos_charge_pump\stm_nmos.net
C:\Users\akash\AppData\Local\LTspice\lib\cmp\standard.dio
C:\Users\akash\AppData\Local\LTspice\lib\cmp\standard.bjt
C:\Users\akash\AppData\Local\LTspice\lib\cmp\standard.mos

