LTspice 24.1.9 for Windows
Circuit: C:\Users\akash\Documents\git\LTSpicePlayground\nmos_charge_pump\stm_nmos.net
Start Time: Tue Nov 18 23:26:01 2025
solver = Normal
Maximum thread count: 12
tnom = 27
temp = 27
method = trap
Direct Newton iteration for .op point succeeded.
Changing Tseed to 1e-13
Changing Tseed to 1e-15
Changing Tseed to 1e-12
Changing Tseed to 1e-16
Changing Tseed to 1e-11

Simulation stopped by user.
Total elapsed time: 363.816 seconds.

Files loaded:
C:\Users\akash\Documents\git\LTSpicePlayground\nmos_charge_pump\stm_nmos.net
C:\Users\akash\AppData\Local\LTspice\lib\cmp\standard.dio

